REMARK  Name = data/1hsg_ligand.pdb
REMARK  17 active torsions:
REMARK  status: ('A' for Active; 'I' for Inactive)
REMARK    1  A    between atoms: N_1  and  C_39
REMARK    2  A    between atoms: C_3  and  C_4
REMARK    3  A    between atoms: N_6  and  C_7
REMARK    4  A    between atoms: C_7  and  C_8
REMARK    5  A    between atoms: C_7  and  C_9
REMARK    6  A    between atoms: C_7  and  C_10
REMARK    7  A    between atoms: N_11  and  C_14
REMARK    8  A    between atoms: C_14  and  C_15
REMARK    9  A    between atoms: C_15  and  O_16
REMARK   10  A    between atoms: C_15  and  C_17
REMARK   11  A    between atoms: C_17  and  C_18
REMARK   12  A    between atoms: C_18  and  C_19
REMARK   13  A    between atoms: C_18  and  C_26
REMARK   14  A    between atoms: C_19  and  C_20
REMARK   15  A    between atoms: N_28  and  C_29
REMARK   16  A    between atoms: C_30  and  O_31
REMARK   17  A    between atoms: C_39  and  C_40
REMARK                            x       y       z     vdW  Elec       q    Type
REMARK                         _______ _______ _______ _____ _____    ______ ____
ROOT
ATOM      1  C   UNL     1       0.418   0.660  -2.694  0.00  0.00    +0.129 C 
ENDROOT
BRANCH   1   2
ATOM      2  O   UNL     1       0.025   1.985  -2.362  0.00  0.00    -0.391 OA
ATOM      3  H   UNL     1      -0.943   2.026  -2.470  0.00  0.00    +0.210 HD
ENDBRANCH   1   2
BRANCH   1   4
ATOM      4  C   UNL     1       1.608   0.196  -1.818  0.00  0.00    +0.116 C 
BRANCH   4   8
ATOM      5  N   UNL     1      -1.090   1.073   0.957  0.00  0.00    -0.295 NA
ATOM      6  C   UNL     1      -0.984  -0.233   0.258  0.00  0.00    +0.113 C 
ATOM      7  C   UNL     1       0.442  -0.848   0.163  0.00  0.00    +0.157 C 
ATOM      8  N   UNL     1       1.483   0.083  -0.354  0.00  0.00    -0.287 NA
ATOM      9  C   UNL     1       1.375   1.403   0.298  0.00  0.00    +0.100 C 
ATOM     10  C   UNL     1      -0.034   2.004   0.521  0.00  0.00    +0.100 C 
BRANCH   7  11
ATOM     11  C   UNL     1       0.448  -2.236  -0.555  0.00  0.00    +0.232 C 
ATOM     12  O   UNL     1      -0.561  -2.724  -1.058  0.00  0.00    -0.274 OA
ATOM     13  N   UNL     1       1.677  -2.883  -0.548  0.00  0.00    -0.309 N 
ATOM     14  H   UNL     1       2.442  -2.350  -0.143  0.00  0.00    +0.149 HD
BRANCH  13  15
ATOM     15  C   UNL     1       1.964  -4.253  -1.035  0.00  0.00    +0.026 C 
ATOM     16  C   UNL     1       1.594  -4.434  -2.518  0.00  0.00    +0.031 C 
ATOM     17  C   UNL     1       3.479  -4.522  -0.895  0.00  0.00    +0.031 C 
ATOM     18  C   UNL     1       1.221  -5.314  -0.202  0.00  0.00    +0.031 C 
ENDBRANCH  13  15
ENDBRANCH   7  11
BRANCH   5  19
ATOM     19  C   UNL     1      -1.063   0.960   2.415  0.00  0.00    +0.121 C 
BRANCH  19  20
ATOM     20  C   UNL     1      -2.340   0.496   3.062  0.00  0.00    -0.015 A 
ATOM     21  C   UNL     1      -2.277  -0.016   4.355  0.00  0.00    +0.115 A 
ATOM     22  N   UNL     1      -3.350  -0.243   5.142  0.00  0.00    -0.263 NA
ATOM     23  C   UNL     1      -4.555   0.055   4.613  0.00  0.00    +0.111 A 
ATOM     24  C   UNL     1      -4.737   0.522   3.321  0.00  0.00    +0.020 A 
ATOM     25  C   UNL     1      -3.611   0.742   2.533  0.00  0.00    +0.008 A 
ENDBRANCH  19  20
ENDBRANCH   5  19
ENDBRANCH   4   8
ENDBRANCH   1   4
BRANCH   1  26
ATOM     26  C   UNL     1       0.794   0.772  -4.162  0.00  0.00    +0.045 C 
BRANCH  26  27
ATOM     27  C   UNL     1       1.287  -0.526  -4.792  0.00  0.00    +0.082 C 
BRANCH  27  28
ATOM     28  C   UNL     1       1.939  -0.163  -6.112  0.00  0.00    +0.217 C 
ATOM     29  O   UNL     1       1.440  -0.468  -7.190  0.00  0.00    -0.275 OA
ATOM     30  N   UNL     1       3.134   0.559  -6.024  0.00  0.00    -0.306 N 
ATOM     31  H   UNL     1       3.604   0.749  -5.148  0.00  0.00    +0.149 HD
BRANCH  30  32
ATOM     32  C   UNL     1       3.733   0.912  -7.299  0.00  0.00    +0.132 C 
ATOM     33  C   UNL     1       4.252  -0.354  -8.031  0.00  0.00    +0.143 C 
ATOM     34  C   UNL     1       5.072   0.198  -9.185  0.00  0.00    +0.069 C 
ATOM     35  C   UNL     1       5.668   1.420  -8.549  0.00  0.00    -0.040 A 
ATOM     36  C   UNL     1       6.732   2.152  -9.048  0.00  0.00    +0.004 A 
ATOM     37  C   UNL     1       7.105   3.307  -8.376  0.00  0.00    +0.000 A 
ATOM     38  C   UNL     1       6.407   3.709  -7.219  0.00  0.00    +0.000 A 
ATOM     39  C   UNL     1       5.320   2.966  -6.730  0.00  0.00    +0.006 A 
ATOM     40  C   UNL     1       4.945   1.813  -7.394  0.00  0.00    -0.022 A 
BRANCH  33  41
ATOM     41  O   UNL     1       5.096  -1.158  -7.177  0.00  0.00    -0.389 OA
ATOM     42  H   UNL     1       4.755  -1.050  -6.273  0.00  0.00    +0.210 HD
ENDBRANCH  33  41
ENDBRANCH  30  32
ENDBRANCH  27  28
BRANCH  27  43
ATOM     43  C   UNL     1       0.220  -1.650  -4.855  0.00  0.00    +0.048 C 
BRANCH  43  44
ATOM     44  C   UNL     1      -1.226  -1.353  -5.224  0.00  0.00    -0.047 A 
ATOM     45  C   UNL     1      -1.585  -0.583  -6.336  0.00  0.00    +0.003 A 
ATOM     46  C   UNL     1      -2.928  -0.328  -6.638  0.00  0.00    +0.000 A 
ATOM     47  C   UNL     1      -3.941  -0.863  -5.848  0.00  0.00    +0.000 A 
ATOM     48  C   UNL     1      -3.609  -1.679  -4.773  0.00  0.00    +0.000 A 
ATOM     49  C   UNL     1      -2.266  -1.928  -4.467  0.00  0.00    +0.003 A 
ENDBRANCH  43  44
ENDBRANCH  27  43
ENDBRANCH  26  27
ENDBRANCH   1  26
TORSDOF 14
