MODEL 1
REMARK VINA RESULT:    -6.281      0.000      0.000
REMARK INTER + INTRA:         -13.849
REMARK INTER:                 -11.054
REMARK INTRA:                  -2.796
REMARK UNBOUND:                -2.796
REMARK  Name = data/1hsg_ligand.pdb
REMARK  17 active torsions:
REMARK  status: ('A' for Active; 'I' for Inactive)
REMARK    1  A    between atoms: N_1  and  C_39
REMARK    2  A    between atoms: C_3  and  C_4
REMARK    3  A    between atoms: N_6  and  C_7
REMARK    4  A    between atoms: C_7  and  C_8
REMARK    5  A    between atoms: C_7  and  C_9
REMARK    6  A    between atoms: C_7  and  C_10
REMARK    7  A    between atoms: N_11  and  C_14
REMARK    8  A    between atoms: C_14  and  C_15
REMARK    9  A    between atoms: C_15  and  O_16
REMARK   10  A    between atoms: C_15  and  C_17
REMARK   11  A    between atoms: C_17  and  C_18
REMARK   12  A    between atoms: C_18  and  C_19
REMARK   13  A    between atoms: C_18  and  C_26
REMARK   14  A    between atoms: C_19  and  C_20
REMARK   15  A    between atoms: N_28  and  C_29
REMARK   16  A    between atoms: C_30  and  O_31
REMARK   17  A    between atoms: C_39  and  C_40
REMARK                            x       y       z     vdW  Elec       q    Type
REMARK                         _______ _______ _______ _____ _____    ______ ____
ROOT
ATOM      1  C   UNL     1      17.985  14.967  15.192  0.00  0.00    +0.129 C 
ENDROOT
BRANCH   1   2
ATOM      2  O   UNL     1      18.864  13.851  15.220  0.00  0.00    -0.391 OA
ATOM      3  H   UNL     1      19.648  14.098  14.696  0.00  0.00    +0.210 HD
ENDBRANCH   1   2
BRANCH   1   4
ATOM      4  C   UNL     1      17.499  15.330  16.618  0.00  0.00    +0.116 C 
BRANCH   4   8
ATOM      5  N   UNL     1      16.397  17.355  19.847  0.00  0.00    -0.295 NA
ATOM      6  C   UNL     1      17.760  17.372  19.258  0.00  0.00    +0.113 C 
ATOM      7  C   UNL     1      17.841  17.576  17.718  0.00  0.00    +0.157 C 
ATOM      8  N   UNL     1      16.965  16.667  16.928  0.00  0.00    -0.287 NA
ATOM      9  C   UNL     1      15.612  16.603  17.516  0.00  0.00    +0.100 C 
ATOM     10  C   UNL     1      15.479  16.518  19.055  0.00  0.00    +0.100 C 
BRANCH   7  11
ATOM     11  C   UNL     1      19.314  17.616  17.197  0.00  0.00    +0.232 C 
ATOM     12  O   UNL     1      20.247  17.108  17.813  0.00  0.00    -0.274 OA
ATOM     13  N   UNL     1      19.482  18.299  15.999  0.00  0.00    -0.309 N 
ATOM     14  H   UNL     1      18.624  18.630  15.567  0.00  0.00    +0.149 HD
BRANCH  13  15
ATOM     15  C   UNL     1      20.765  18.611  15.326  0.00  0.00    +0.026 C 
ATOM     16  C   UNL     1      21.462  17.348  14.786  0.00  0.00    +0.031 C 
ATOM     17  C   UNL     1      20.482  19.538  14.123  0.00  0.00    +0.031 C 
ATOM     18  C   UNL     1      21.732  19.349  16.270  0.00  0.00    +0.031 C 
ENDBRANCH  13  15
ENDBRANCH   7  11
BRANCH   5  19
ATOM     19  C   UNL     1      15.815  18.687  20.013  0.00  0.00    +0.121 C 
BRANCH  19  20
ATOM     20  C   UNL     1      14.589  18.765  20.883  0.00  0.00    -0.015 A 
ATOM     21  C   UNL     1      14.652  18.220  22.162  0.00  0.00    +0.115 A 
ATOM     22  N   UNL     1      13.730  18.424  23.127  0.00  0.00    -0.263 NA
ATOM     23  C   UNL     1      12.686  19.214  22.801  0.00  0.00    +0.111 A 
ATOM     24  C   UNL     1      12.499  19.767  21.544  0.00  0.00    +0.020 A 
ATOM     25  C   UNL     1      13.465  19.535  20.570  0.00  0.00    +0.008 A 
ENDBRANCH  19  20
ENDBRANCH   5  19
ENDBRANCH   4   8
ENDBRANCH   1   4
BRANCH   1  26
ATOM     26  C   UNL     1      16.850  14.487  14.303  0.00  0.00    +0.045 C 
BRANCH  26  27
ATOM     27  C   UNL     1      15.895  15.584  13.845  0.00  0.00    +0.082 C 
BRANCH  27  28
ATOM     28  C   UNL     1      14.508  15.196  14.321  0.00  0.00    +0.217 C 
ATOM     29  O   UNL     1      14.263  14.083  14.774  0.00  0.00    -0.275 OA
ATOM     30  N   UNL     1      13.531  16.194  14.230  0.00  0.00    -0.306 N 
ATOM     31  H   UNL     1      13.692  17.089  13.786  0.00  0.00    +0.149 HD
BRANCH  30  32
ATOM     32  C   UNL     1      12.215  15.808  14.707  0.00  0.00    +0.132 C 
ATOM     33  C   UNL     1      11.126  16.164  13.661  0.00  0.00    +0.143 C 
ATOM     34  C   UNL     1       9.818  15.956  14.406  0.00  0.00    +0.069 C 
ATOM     35  C   UNL     1      10.203  16.406  15.785  0.00  0.00    -0.040 A 
ATOM     36  C   UNL     1       9.323  16.705  16.811  0.00  0.00    +0.004 A 
ATOM     37  C   UNL     1       9.851  17.026  18.054  0.00  0.00    +0.000 A 
ATOM     38  C   UNL     1      11.248  17.040  18.247  0.00  0.00    +0.000 A 
ATOM     39  C   UNL     1      12.130  16.720  17.202  0.00  0.00    +0.006 A 
ATOM     40  C   UNL     1      11.610  16.402  15.961  0.00  0.00    -0.022 A 
BRANCH  33  41
ATOM     41  O   UNL     1      11.226  17.540  13.231  0.00  0.00    -0.389 OA
ATOM     42  H   UNL     1      10.694  17.615  12.421  0.00  0.00    +0.210 HD
ENDBRANCH  33  41
ENDBRANCH  30  32
ENDBRANCH  27  28
BRANCH  27  43
ATOM     43  C   UNL     1      16.013  15.946  12.342  0.00  0.00    +0.048 C 
BRANCH  43  44
ATOM     44  C   UNL     1      17.362  15.985  11.638  0.00  0.00    -0.047 A 
ATOM     45  C   UNL     1      17.643  15.235  10.490  0.00  0.00    +0.003 A 
ATOM     46  C   UNL     1      18.900  15.295   9.876  0.00  0.00    +0.000 A 
ATOM     47  C   UNL     1      19.892  16.129  10.381  0.00  0.00    +0.000 A 
ATOM     48  C   UNL     1      19.615  16.927  11.485  0.00  0.00    +0.000 A 
ATOM     49  C   UNL     1      18.361  16.862  12.104  0.00  0.00    +0.003 A 
ENDBRANCH  43  44
ENDBRANCH  27  43
ENDBRANCH  26  27
ENDBRANCH   1  26
TORSDOF 14
ENDMDL
MODEL 2
REMARK VINA RESULT:    -6.084      2.002      4.048
REMARK INTER + INTRA:         -13.504
REMARK INTER:                  -9.536
REMARK INTRA:                  -3.968
REMARK UNBOUND:                -2.796
REMARK  Name = data/1hsg_ligand.pdb
REMARK  17 active torsions:
REMARK  status: ('A' for Active; 'I' for Inactive)
REMARK    1  A    between atoms: N_1  and  C_39
REMARK    2  A    between atoms: C_3  and  C_4
REMARK    3  A    between atoms: N_6  and  C_7
REMARK    4  A    between atoms: C_7  and  C_8
REMARK    5  A    between atoms: C_7  and  C_9
REMARK    6  A    between atoms: C_7  and  C_10
REMARK    7  A    between atoms: N_11  and  C_14
REMARK    8  A    between atoms: C_14  and  C_15
REMARK    9  A    between atoms: C_15  and  O_16
REMARK   10  A    between atoms: C_15  and  C_17
REMARK   11  A    between atoms: C_17  and  C_18
REMARK   12  A    between atoms: C_18  and  C_19
REMARK   13  A    between atoms: C_18  and  C_26
REMARK   14  A    between atoms: C_19  and  C_20
REMARK   15  A    between atoms: N_28  and  C_29
REMARK   16  A    between atoms: C_30  and  O_31
REMARK   17  A    between atoms: C_39  and  C_40
REMARK                            x       y       z     vdW  Elec       q    Type
REMARK                         _______ _______ _______ _____ _____    ______ ____
ROOT
ATOM      1  C   UNL     1      17.813  14.081  15.025  0.00  0.00    +0.129 C 
ENDROOT
BRANCH   1   2
ATOM      2  O   UNL     1      18.814  13.351  14.328  0.00  0.00    -0.391 OA
ATOM      3  H   UNL     1      18.818  13.684  13.412  0.00  0.00    +0.210 HD
ENDBRANCH   1   2
BRANCH   1   4
ATOM      4  C   UNL     1      17.481  13.415  16.383  0.00  0.00    +0.116 C 
BRANCH   4   8
ATOM      5  N   UNL     1      16.258  16.934  17.750  0.00  0.00    -0.295 NA
ATOM      6  C   UNL     1      15.486  15.669  17.848  0.00  0.00    +0.113 C 
ATOM      7  C   UNL     1      16.269  14.424  18.354  0.00  0.00    +0.157 C 
ATOM      8  N   UNL     1      17.554  14.172  17.645  0.00  0.00    -0.287 NA
ATOM      9  C   UNL     1      18.325  15.423  17.500  0.00  0.00    +0.100 C 
ATOM     10  C   UNL     1      17.568  16.716  17.112  0.00  0.00    +0.100 C 
BRANCH   7  11
ATOM     11  C   UNL     1      15.366  13.152  18.459  0.00  0.00    +0.232 C 
ATOM     12  O   UNL     1      15.762  12.100  18.954  0.00  0.00    -0.274 OA
ATOM     13  N   UNL     1      14.095  13.301  17.919  0.00  0.00    -0.309 N 
ATOM     14  H   UNL     1      13.876  14.236  17.585  0.00  0.00    +0.149 HD
BRANCH  13  15
ATOM     15  C   UNL     1      13.067  12.246  17.760  0.00  0.00    +0.026 C 
ATOM     16  C   UNL     1      12.688  11.594  19.101  0.00  0.00    +0.031 C 
ATOM     17  C   UNL     1      11.789  12.884  17.172  0.00  0.00    +0.031 C 
ATOM     18  C   UNL     1      13.533  11.148  16.785  0.00  0.00    +0.031 C 
ENDBRANCH  13  15
ENDBRANCH   7  11
BRANCH   5  19
ATOM     19  C   UNL     1      16.452  17.603  19.036  0.00  0.00    +0.121 C 
BRANCH  19  20
ATOM     20  C   UNL     1      15.197  17.985  19.774  0.00  0.00    -0.015 A 
ATOM     21  C   UNL     1      15.020  17.506  21.069  0.00  0.00    +0.115 A 
ATOM     22  N   UNL     1      14.079  17.951  21.928  0.00  0.00    -0.263 NA
ATOM     23  C   UNL     1      13.267  18.928  21.474  0.00  0.00    +0.111 A 
ATOM     24  C   UNL     1      13.322  19.443  20.189  0.00  0.00    +0.020 A 
ATOM     25  C   UNL     1      14.301  18.961  19.325  0.00  0.00    +0.008 A 
ENDBRANCH  19  20
ENDBRANCH   5  19
ENDBRANCH   4   8
ENDBRANCH   1   4
BRANCH   1  26
ATOM     26  C   UNL     1      16.636  14.049  14.065  0.00  0.00    +0.045 C 
BRANCH  26  27
ATOM     27  C   UNL     1      15.873  15.364  13.952  0.00  0.00    +0.082 C 
BRANCH  27  28
ATOM     28  C   UNL     1      14.451  15.097  14.405  0.00  0.00    +0.217 C 
ATOM     29  O   UNL     1      14.114  14.023  14.892  0.00  0.00    -0.275 OA
ATOM     30  N   UNL     1      13.552  16.158  14.253  0.00  0.00    -0.306 N 
ATOM     31  H   UNL     1      13.788  17.022  13.781  0.00  0.00    +0.149 HD
BRANCH  30  32
ATOM     32  C   UNL     1      12.200  15.888  14.710  0.00  0.00    +0.132 C 
ATOM     33  C   UNL     1      11.159  16.463  13.713  0.00  0.00    +0.143 C 
ATOM     34  C   UNL     1       9.837  16.343  14.452  0.00  0.00    +0.069 C 
ATOM     35  C   UNL     1      10.274  16.616  15.861  0.00  0.00    -0.040 A 
ATOM     36  C   UNL     1       9.438  16.922  16.921  0.00  0.00    +0.004 A 
ATOM     37  C   UNL     1      10.001  17.065  18.181  0.00  0.00    +0.000 A 
ATOM     38  C   UNL     1      11.390  16.897  18.357  0.00  0.00    +0.000 A 
ATOM     39  C   UNL     1      12.227  16.573  17.277  0.00  0.00    +0.006 A 
ATOM     40  C   UNL     1      11.672  16.432  16.019  0.00  0.00    -0.022 A 
BRANCH  33  41
ATOM     41  O   UNL     1      11.420  17.851  13.408  0.00  0.00    -0.389 OA
ATOM     42  H   UNL     1      10.552  18.279  13.311  0.00  0.00    +0.210 HD
ENDBRANCH  33  41
ENDBRANCH  30  32
ENDBRANCH  27  28
BRANCH  27  43
ATOM     43  C   UNL     1      16.020  16.071  12.579  0.00  0.00    +0.048 C 
BRANCH  43  44
ATOM     44  C   UNL     1      17.380  16.257  11.923  0.00  0.00    -0.047 A 
ATOM     45  C   UNL     1      18.454  16.885  12.563  0.00  0.00    +0.003 A 
ATOM     46  C   UNL     1      19.689  17.042  11.922  0.00  0.00    +0.000 A 
ATOM     47  C   UNL     1      19.882  16.548  10.636  0.00  0.00    +0.000 A 
ATOM     48  C   UNL     1      18.847  15.869  10.003  0.00  0.00    +0.000 A 
ATOM     49  C   UNL     1      17.610  15.718  10.642  0.00  0.00    +0.003 A 
ENDBRANCH  43  44
ENDBRANCH  27  43
ENDBRANCH  26  27
ENDBRANCH   1  26
TORSDOF 14
ENDMDL
MODEL 3
REMARK VINA RESULT:    -6.017      2.098      4.198
REMARK INTER + INTRA:         -13.386
REMARK INTER:                  -9.738
REMARK INTRA:                  -3.647
REMARK UNBOUND:                -2.796
REMARK  Name = data/1hsg_ligand.pdb
REMARK  17 active torsions:
REMARK  status: ('A' for Active; 'I' for Inactive)
REMARK    1  A    between atoms: N_1  and  C_39
REMARK    2  A    between atoms: C_3  and  C_4
REMARK    3  A    between atoms: N_6  and  C_7
REMARK    4  A    between atoms: C_7  and  C_8
REMARK    5  A    between atoms: C_7  and  C_9
REMARK    6  A    between atoms: C_7  and  C_10
REMARK    7  A    between atoms: N_11  and  C_14
REMARK    8  A    between atoms: C_14  and  C_15
REMARK    9  A    between atoms: C_15  and  O_16
REMARK   10  A    between atoms: C_15  and  C_17
REMARK   11  A    between atoms: C_17  and  C_18
REMARK   12  A    between atoms: C_18  and  C_19
REMARK   13  A    between atoms: C_18  and  C_26
REMARK   14  A    between atoms: C_19  and  C_20
REMARK   15  A    between atoms: N_28  and  C_29
REMARK   16  A    between atoms: C_30  and  O_31
REMARK   17  A    between atoms: C_39  and  C_40
REMARK                            x       y       z     vdW  Elec       q    Type
REMARK                         _______ _______ _______ _____ _____    ______ ____
ROOT
ATOM      1  C   UNL     1      16.708  15.047  15.529  0.00  0.00    +0.129 C 
ENDROOT
BRANCH   1   2
ATOM      2  O   UNL     1      16.820  13.890  16.346  0.00  0.00    -0.391 OA
ATOM      3  H   UNL     1      17.575  14.041  16.944  0.00  0.00    +0.210 HD
ENDBRANCH   1   2
BRANCH   1   4
ATOM      4  C   UNL     1      16.178  16.254  16.342  0.00  0.00    +0.116 C 
BRANCH   4   8
ATOM      5  N   UNL     1      14.778  18.557  19.254  0.00  0.00    -0.295 NA
ATOM      6  C   UNL     1      14.003  17.494  18.565  0.00  0.00    +0.113 C 
ATOM      7  C   UNL     1      14.719  16.122  18.397  0.00  0.00    +0.157 C 
ATOM      8  N   UNL     1      16.085  16.206  17.812  0.00  0.00    -0.287 NA
ATOM      9  C   UNL     1      16.864  17.283  18.453  0.00  0.00    +0.100 C 
ATOM     10  C   UNL     1      16.160  18.630  18.749  0.00  0.00    +0.100 C 
BRANCH   7  11
ATOM     11  C   UNL     1      13.814  15.058  17.696  0.00  0.00    +0.232 C 
ATOM     12  O   UNL     1      12.864  15.367  16.982  0.00  0.00    -0.274 OA
ATOM     13  N   UNL     1      14.154  13.740  17.974  0.00  0.00    -0.309 N 
ATOM     14  H   UNL     1      14.991  13.621  18.539  0.00  0.00    +0.149 HD
BRANCH  13  15
ATOM     15  C   UNL     1      13.414  12.525  17.560  0.00  0.00    +0.026 C 
ATOM     16  C   UNL     1      13.648  12.176  16.079  0.00  0.00    +0.031 C 
ATOM     17  C   UNL     1      13.910  11.330  18.406  0.00  0.00    +0.031 C 
ATOM     18  C   UNL     1      11.901  12.676  17.805  0.00  0.00    +0.031 C 
ENDBRANCH  13  15
ENDBRANCH   7  11
BRANCH   5  19
ATOM     19  C   UNL     1      14.802  18.414  20.710  0.00  0.00    +0.121 C 
BRANCH  19  20
ATOM     20  C   UNL     1      13.487  18.615  21.412  0.00  0.00    -0.015 A 
ATOM     21  C   UNL     1      13.087  17.668  22.350  0.00  0.00    +0.115 A 
ATOM     22  N   UNL     1      12.068  17.833  23.220  0.00  0.00    -0.263 NA
ATOM     23  C   UNL     1      11.408  19.008  23.153  0.00  0.00    +0.111 A 
ATOM     24  C   UNL     1      11.689  20.000  22.227  0.00  0.00    +0.020 A 
ATOM     25  C   UNL     1      12.743  19.797  21.341  0.00  0.00    +0.008 A 
ENDBRANCH  19  20
ENDBRANCH   5  19
ENDBRANCH   4   8
ENDBRANCH   1   4
BRANCH   1  26
ATOM     26  C   UNL     1      15.732  14.610  14.448  0.00  0.00    +0.045 C 
BRANCH  26  27
ATOM     27  C   UNL     1      15.541  15.617  13.320  0.00  0.00    +0.082 C 
BRANCH  27  28
ATOM     28  C   UNL     1      14.049  15.742  13.081  0.00  0.00    +0.217 C 
ATOM     29  O   UNL     1      13.514  15.310  12.065  0.00  0.00    -0.275 OA
ATOM     30  N   UNL     1      13.318  16.362  14.099  0.00  0.00    -0.306 N 
ATOM     31  H   UNL     1      13.748  16.798  14.905  0.00  0.00    +0.149 HD
BRANCH  30  32
ATOM     32  C   UNL     1      11.889  16.457  13.858  0.00  0.00    +0.132 C 
ATOM     33  C   UNL     1      11.283  17.667  14.617  0.00  0.00    +0.143 C 
ATOM     34  C   UNL     1       9.782  17.469  14.488  0.00  0.00    +0.069 C 
ATOM     35  C   UNL     1       9.688  15.973  14.555  0.00  0.00    -0.040 A 
ATOM     36  C   UNL     1       8.530  15.246  14.778  0.00  0.00    +0.004 A 
ATOM     37  C   UNL     1       8.605  13.862  14.727  0.00  0.00    +0.000 A 
ATOM     38  C   UNL     1       9.835  13.230  14.453  0.00  0.00    +0.000 A 
ATOM     39  C   UNL     1      11.000  13.978  14.214  0.00  0.00    +0.006 A 
ATOM     40  C   UNL     1      10.932  15.357  14.266  0.00  0.00    -0.022 A 
BRANCH  33  41
ATOM     41  O   UNL     1      11.654  17.664  16.013  0.00  0.00    -0.389 OA
ATOM     42  H   UNL     1      12.547  17.282  16.060  0.00  0.00    +0.210 HD
ENDBRANCH  33  41
ENDBRANCH  30  32
ENDBRANCH  27  28
BRANCH  27  43
ATOM     43  C   UNL     1      16.404  15.337  12.062  0.00  0.00    +0.048 C 
BRANCH  43  44
ATOM     44  C   UNL     1      17.768  15.983  11.873  0.00  0.00    -0.047 A 
ATOM     45  C   UNL     1      18.513  15.859  10.696  0.00  0.00    +0.003 A 
ATOM     46  C   UNL     1      19.768  16.466  10.564  0.00  0.00    +0.000 A 
ATOM     47  C   UNL     1      20.291  17.233  11.601  0.00  0.00    +0.000 A 
ATOM     48  C   UNL     1      19.542  17.419  12.757  0.00  0.00    +0.000 A 
ATOM     49  C   UNL     1      18.291  16.806  12.891  0.00  0.00    +0.003 A 
ENDBRANCH  43  44
ENDBRANCH  27  43
ENDBRANCH  26  27
ENDBRANCH   1  26
TORSDOF 14
ENDMDL
MODEL 4
REMARK VINA RESULT:    -5.930      2.642      4.661
REMARK INTER + INTRA:         -13.233
REMARK INTER:                  -9.313
REMARK INTRA:                  -3.920
REMARK UNBOUND:                -2.796
REMARK  Name = data/1hsg_ligand.pdb
REMARK  17 active torsions:
REMARK  status: ('A' for Active; 'I' for Inactive)
REMARK    1  A    between atoms: N_1  and  C_39
REMARK    2  A    between atoms: C_3  and  C_4
REMARK    3  A    between atoms: N_6  and  C_7
REMARK    4  A    between atoms: C_7  and  C_8
REMARK    5  A    between atoms: C_7  and  C_9
REMARK    6  A    between atoms: C_7  and  C_10
REMARK    7  A    between atoms: N_11  and  C_14
REMARK    8  A    between atoms: C_14  and  C_15
REMARK    9  A    between atoms: C_15  and  O_16
REMARK   10  A    between atoms: C_15  and  C_17
REMARK   11  A    between atoms: C_17  and  C_18
REMARK   12  A    between atoms: C_18  and  C_19
REMARK   13  A    between atoms: C_18  and  C_26
REMARK   14  A    between atoms: C_19  and  C_20
REMARK   15  A    between atoms: N_28  and  C_29
REMARK   16  A    between atoms: C_30  and  O_31
REMARK   17  A    between atoms: C_39  and  C_40
REMARK                            x       y       z     vdW  Elec       q    Type
REMARK                         _______ _______ _______ _____ _____    ______ ____
ROOT
ATOM      1  C   UNL     1      16.811  15.156  14.914  0.00  0.00    +0.129 C 
ENDROOT
BRANCH   1   2
ATOM      2  O   UNL     1      18.091  14.568  14.720  0.00  0.00    -0.391 OA
ATOM      3  H   UNL     1      18.503  14.496  15.600  0.00  0.00    +0.210 HD
ENDBRANCH   1   2
BRANCH   1   4
ATOM      4  C   UNL     1      16.105  14.555  16.154  0.00  0.00    +0.116 C 
BRANCH   4   8
ATOM      5  N   UNL     1      13.579  12.431  18.358  0.00  0.00    -0.295 NA
ATOM      6  C   UNL     1      13.834  13.885  18.522  0.00  0.00    +0.113 C 
ATOM      7  C   UNL     1      13.823  14.736  17.219  0.00  0.00    +0.157 C 
ATOM      8  N   UNL     1      14.675  14.198  16.123  0.00  0.00    -0.287 NA
ATOM      9  C   UNL     1      14.469  12.745  15.965  0.00  0.00    +0.100 C 
ATOM     10  C   UNL     1      14.356  11.871  17.238  0.00  0.00    +0.100 C 
BRANCH   7  11
ATOM     11  C   UNL     1      14.063  16.255  17.495  0.00  0.00    +0.232 C 
ATOM     12  O   UNL     1      14.194  17.078  16.592  0.00  0.00    -0.274 OA
ATOM     13  N   UNL     1      14.149  16.590  18.841  0.00  0.00    -0.309 N 
ATOM     14  H   UNL     1      13.974  15.825  19.487  0.00  0.00    +0.149 HD
BRANCH  13  15
ATOM     15  C   UNL     1      14.492  17.916  19.407  0.00  0.00    +0.026 C 
ATOM     16  C   UNL     1      13.406  18.969  19.124  0.00  0.00    +0.031 C 
ATOM     17  C   UNL     1      14.622  17.780  20.941  0.00  0.00    +0.031 C 
ATOM     18  C   UNL     1      15.839  18.428  18.866  0.00  0.00    +0.031 C 
ENDBRANCH  13  15
ENDBRANCH   7  11
BRANCH   5  19
ATOM     19  C   UNL     1      12.165  12.102  18.179  0.00  0.00    +0.121 C 
BRANCH  19  20
ATOM     20  C   UNL     1      11.196  12.880  19.026  0.00  0.00    -0.015 A 
ATOM     21  C   UNL     1      11.217  12.682  20.404  0.00  0.00    +0.115 A 
ATOM     22  N   UNL     1      10.587  13.470  21.301  0.00  0.00    -0.263 NA
ATOM     23  C   UNL     1       9.895  14.515  20.799  0.00  0.00    +0.111 A 
ATOM     24  C   UNL     1       9.766  14.776  19.445  0.00  0.00    +0.020 A 
ATOM     25  C   UNL     1      10.425  13.943  18.545  0.00  0.00    +0.008 A 
ENDBRANCH  19  20
ENDBRANCH   5  19
ENDBRANCH   4   8
ENDBRANCH   1   4
BRANCH   1  26
ATOM     26  C   UNL     1      16.083  14.826  13.621  0.00  0.00    +0.045 C 
BRANCH  26  27
ATOM     27  C   UNL     1      15.504  16.033  12.893  0.00  0.00    +0.082 C 
BRANCH  27  28
ATOM     28  C   UNL     1      14.004  15.827  12.807  0.00  0.00    +0.217 C 
ATOM     29  O   UNL     1      13.481  15.235  11.868  0.00  0.00    -0.275 OA
ATOM     30  N   UNL     1      13.256  16.334  13.874  0.00  0.00    -0.306 N 
ATOM     31  H   UNL     1      13.657  16.895  14.616  0.00  0.00    +0.149 HD
BRANCH  30  32
ATOM     32  C   UNL     1      11.824  16.110  13.782  0.00  0.00    +0.132 C 
ATOM     33  C   UNL     1      11.043  17.250  14.487  0.00  0.00    +0.143 C 
ATOM     34  C   UNL     1       9.613  16.740  14.539  0.00  0.00    +0.069 C 
ATOM     35  C   UNL     1       9.844  15.272  14.753  0.00  0.00    -0.040 A 
ATOM     36  C   UNL     1       8.891  14.356  15.164  0.00  0.00    +0.004 A 
ATOM     37  C   UNL     1       9.253  13.019  15.232  0.00  0.00    +0.000 A 
ATOM     38  C   UNL     1      10.561  12.622  14.886  0.00  0.00    +0.000 A 
ATOM     39  C   UNL     1      11.516  13.558  14.456  0.00  0.00    +0.006 A 
ATOM     40  C   UNL     1      11.161  14.893  14.389  0.00  0.00    -0.022 A 
BRANCH  33  41
ATOM     41  O   UNL     1      11.526  17.478  15.830  0.00  0.00    -0.389 OA
ATOM     42  H   UNL     1      12.040  18.303  15.801  0.00  0.00    +0.210 HD
ENDBRANCH  33  41
ENDBRANCH  30  32
ENDBRANCH  27  28
BRANCH  27  43
ATOM     43  C   UNL     1      16.214  16.374  11.557  0.00  0.00    +0.048 C 
BRANCH  43  44
ATOM     44  C   UNL     1      17.729  16.478  11.467  0.00  0.00    -0.047 A 
ATOM     45  C   UNL     1      18.497  17.215  12.375  0.00  0.00    +0.003 A 
ATOM     46  C   UNL     1      19.890  17.291  12.254  0.00  0.00    +0.000 A 
ATOM     47  C   UNL     1      20.546  16.606  11.236  0.00  0.00    +0.000 A 
ATOM     48  C   UNL     1      19.809  15.820  10.357  0.00  0.00    +0.000 A 
ATOM     49  C   UNL     1      18.416  15.751  10.474  0.00  0.00    +0.003 A 
ENDBRANCH  43  44
ENDBRANCH  27  43
ENDBRANCH  26  27
ENDBRANCH   1  26
TORSDOF 14
ENDMDL
MODEL 5
REMARK VINA RESULT:    -5.904      2.933      6.923
REMARK INTER + INTRA:         -13.186
REMARK INTER:                 -10.099
REMARK INTRA:                  -3.087
REMARK UNBOUND:                -2.796
REMARK  Name = data/1hsg_ligand.pdb
REMARK  17 active torsions:
REMARK  status: ('A' for Active; 'I' for Inactive)
REMARK    1  A    between atoms: N_1  and  C_39
REMARK    2  A    between atoms: C_3  and  C_4
REMARK    3  A    between atoms: N_6  and  C_7
REMARK    4  A    between atoms: C_7  and  C_8
REMARK    5  A    between atoms: C_7  and  C_9
REMARK    6  A    between atoms: C_7  and  C_10
REMARK    7  A    between atoms: N_11  and  C_14
REMARK    8  A    between atoms: C_14  and  C_15
REMARK    9  A    between atoms: C_15  and  O_16
REMARK   10  A    between atoms: C_15  and  C_17
REMARK   11  A    between atoms: C_17  and  C_18
REMARK   12  A    between atoms: C_18  and  C_19
REMARK   13  A    between atoms: C_18  and  C_26
REMARK   14  A    between atoms: C_19  and  C_20
REMARK   15  A    between atoms: N_28  and  C_29
REMARK   16  A    between atoms: C_30  and  O_31
REMARK   17  A    between atoms: C_39  and  C_40
REMARK                            x       y       z     vdW  Elec       q    Type
REMARK                         _______ _______ _______ _____ _____    ______ ____
ROOT
ATOM      1  C   UNL     1      13.846  15.154  13.157  0.00  0.00    +0.129 C 
ENDROOT
BRANCH   1   2
ATOM      2  O   UNL     1      13.994  15.625  11.824  0.00  0.00    -0.391 OA
ATOM      3  H   UNL     1      13.552  16.493  11.782  0.00  0.00    +0.210 HD
ENDBRANCH   1   2
BRANCH   1   4
ATOM      4  C   UNL     1      12.373  15.258  13.624  0.00  0.00    +0.116 C 
BRANCH   4   8
ATOM      5  N   UNL     1       9.043  16.455  15.420  0.00  0.00    -0.295 NA
ATOM      6  C   UNL     1       9.743  15.174  15.694  0.00  0.00    +0.113 C 
ATOM      7  C   UNL     1      11.282  15.262  15.901  0.00  0.00    +0.157 C 
ATOM      8  N   UNL     1      12.006  16.011  14.836  0.00  0.00    -0.287 NA
ATOM      9  C   UNL     1      11.309  17.273  14.517  0.00  0.00    +0.100 C 
ATOM     10  C   UNL     1       9.764  17.258  14.417  0.00  0.00    +0.100 C 
BRANCH   7  11
ATOM     11  C   UNL     1      11.924  13.874  16.219  0.00  0.00    +0.232 C 
ATOM     12  O   UNL     1      13.076  13.756  16.630  0.00  0.00    -0.274 OA
ATOM     13  N   UNL     1      11.097  12.786  15.970  0.00  0.00    -0.309 N 
ATOM     14  H   UNL     1      10.151  13.021  15.679  0.00  0.00    +0.149 HD
BRANCH  13  15
ATOM     15  C   UNL     1      11.462  11.352  16.055  0.00  0.00    +0.026 C 
ATOM     16  C   UNL     1      11.820  10.926  17.490  0.00  0.00    +0.031 C 
ATOM     17  C   UNL     1      10.252  10.504  15.604  0.00  0.00    +0.031 C 
ATOM     18  C   UNL     1      12.643  11.016  15.125  0.00  0.00    +0.031 C 
ENDBRANCH  13  15
ENDBRANCH   7  11
BRANCH   5  19
ATOM     19  C   UNL     1       8.816  17.265  16.616  0.00  0.00    +0.121 C 
BRANCH  19  20
ATOM     20  C   UNL     1       7.464  17.119  17.261  0.00  0.00    -0.015 A 
ATOM     21  C   UNL     1       7.392  17.125  18.651  0.00  0.00    +0.115 A 
ATOM     22  N   UNL     1       6.248  17.245  19.359  0.00  0.00    -0.263 NA
ATOM     23  C   UNL     1       5.111  17.365  18.643  0.00  0.00    +0.111 A 
ATOM     24  C   UNL     1       5.061  17.322  17.259  0.00  0.00    +0.020 A 
ATOM     25  C   UNL     1       6.257  17.193  16.558  0.00  0.00    +0.008 A 
ENDBRANCH  19  20
ENDBRANCH   5  19
ENDBRANCH   4   8
ENDBRANCH   1   4
BRANCH   1  26
ATOM     26  C   UNL     1      14.767  16.068  13.947  0.00  0.00    +0.045 C 
BRANCH  26  27
ATOM     27  C   UNL     1      15.867  15.349  14.719  0.00  0.00    +0.082 C 
BRANCH  27  28
ATOM     28  C   UNL     1      15.639  15.633  16.192  0.00  0.00    +0.217 C 
ATOM     29  O   UNL     1      16.304  15.092  17.069  0.00  0.00    -0.275 OA
ATOM     30  N   UNL     1      14.638  16.564  16.485  0.00  0.00    -0.306 N 
ATOM     31  H   UNL     1      14.024  16.959  15.784  0.00  0.00    +0.149 HD
BRANCH  30  32
ATOM     32  C   UNL     1      14.448  16.835  17.899  0.00  0.00    +0.132 C 
ATOM     33  C   UNL     1      12.970  17.205  18.194  0.00  0.00    +0.143 C 
ATOM     34  C   UNL     1      12.995  17.713  19.625  0.00  0.00    +0.069 C 
ATOM     35  C   UNL     1      14.327  18.405  19.656  0.00  0.00    -0.040 A 
ATOM     36  C   UNL     1      14.749  19.299  20.625  0.00  0.00    +0.004 A 
ATOM     37  C   UNL     1      16.046  19.785  20.547  0.00  0.00    +0.000 A 
ATOM     38  C   UNL     1      16.897  19.367  19.503  0.00  0.00    +0.000 A 
ATOM     39  C   UNL     1      16.461  18.449  18.533  0.00  0.00    +0.006 A 
ATOM     40  C   UNL     1      15.169  17.963  18.604  0.00  0.00    -0.022 A 
BRANCH  33  41
ATOM     41  O   UNL     1      12.494  18.250  17.316  0.00  0.00    -0.389 OA
ATOM     42  H   UNL     1      13.284  18.654  16.917  0.00  0.00    +0.210 HD
ENDBRANCH  33  41
ENDBRANCH  30  32
ENDBRANCH  27  28
BRANCH  27  43
ATOM     43  C   UNL     1      17.300  15.625  14.195  0.00  0.00    +0.048 C 
BRANCH  43  44
ATOM     44  C   UNL     1      17.679  15.365  12.744  0.00  0.00    -0.047 A 
ATOM     45  C   UNL     1      17.426  16.280  11.716  0.00  0.00    +0.003 A 
ATOM     46  C   UNL     1      17.785  16.000  10.392  0.00  0.00    +0.000 A 
ATOM     47  C   UNL     1      18.432  14.809  10.075  0.00  0.00    +0.000 A 
ATOM     48  C   UNL     1      18.745  13.912  11.089  0.00  0.00    +0.000 A 
ATOM     49  C   UNL     1      18.379  14.189  12.411  0.00  0.00    +0.003 A 
ENDBRANCH  43  44
ENDBRANCH  27  43
ENDBRANCH  26  27
ENDBRANCH   1  26
TORSDOF 14
ENDMDL
MODEL 6
REMARK VINA RESULT:    -5.699      2.728      4.770
REMARK INTER + INTRA:         -12.826
REMARK INTER:                  -9.247
REMARK INTRA:                  -3.580
REMARK UNBOUND:                -2.796
REMARK  Name = data/1hsg_ligand.pdb
REMARK  17 active torsions:
REMARK  status: ('A' for Active; 'I' for Inactive)
REMARK    1  A    between atoms: N_1  and  C_39
REMARK    2  A    between atoms: C_3  and  C_4
REMARK    3  A    between atoms: N_6  and  C_7
REMARK    4  A    between atoms: C_7  and  C_8
REMARK    5  A    between atoms: C_7  and  C_9
REMARK    6  A    between atoms: C_7  and  C_10
REMARK    7  A    between atoms: N_11  and  C_14
REMARK    8  A    between atoms: C_14  and  C_15
REMARK    9  A    between atoms: C_15  and  O_16
REMARK   10  A    between atoms: C_15  and  C_17
REMARK   11  A    between atoms: C_17  and  C_18
REMARK   12  A    between atoms: C_18  and  C_19
REMARK   13  A    between atoms: C_18  and  C_26
REMARK   14  A    between atoms: C_19  and  C_20
REMARK   15  A    between atoms: N_28  and  C_29
REMARK   16  A    between atoms: C_30  and  O_31
REMARK   17  A    between atoms: C_39  and  C_40
REMARK                            x       y       z     vdW  Elec       q    Type
REMARK                         _______ _______ _______ _____ _____    ______ ____
ROOT
ATOM      1  C   UNL     1      16.703  15.541  14.977  0.00  0.00    +0.129 C 
ENDROOT
BRANCH   1   2
ATOM      2  O   UNL     1      18.008  15.975  14.616  0.00  0.00    -0.391 OA
ATOM      3  H   UNL     1      18.452  16.247  15.440  0.00  0.00    +0.210 HD
ENDBRANCH   1   2
BRANCH   1   4
ATOM      4  C   UNL     1      16.761  14.490  16.113  0.00  0.00    +0.116 C 
BRANCH   4   8
ATOM      5  N   UNL     1      13.411  16.013  17.598  0.00  0.00    -0.295 NA
ATOM      6  C   UNL     1      13.643  14.571  17.332  0.00  0.00    +0.113 C 
ATOM      7  C   UNL     1      14.992  13.986  17.842  0.00  0.00    +0.157 C 
ATOM      8  N   UNL     1      16.194  14.769  17.445  0.00  0.00    -0.287 NA
ATOM      9  C   UNL     1      15.975  16.212  17.664  0.00  0.00    +0.100 C 
ATOM     10  C   UNL     1      14.603  16.818  17.280  0.00  0.00    +0.100 C 
BRANCH   7  11
ATOM     11  C   UNL     1      15.129  12.457  17.549  0.00  0.00    +0.232 C 
ATOM     12  O   UNL     1      15.976  11.754  18.094  0.00  0.00    -0.274 OA
ATOM     13  N   UNL     1      14.240  11.970  16.600  0.00  0.00    -0.309 N 
ATOM     14  H   UNL     1      13.559  12.644  16.262  0.00  0.00    +0.149 HD
BRANCH  13  15
ATOM     15  C   UNL     1      14.210  10.603  16.027  0.00  0.00    +0.026 C 
ATOM     16  C   UNL     1      15.534  10.232  15.336  0.00  0.00    +0.031 C 
ATOM     17  C   UNL     1      13.981   9.591  17.172  0.00  0.00    +0.031 C 
ATOM     18  C   UNL     1      13.058  10.440  15.019  0.00  0.00    +0.031 C 
ENDBRANCH  13  15
ENDBRANCH   7  11
BRANCH   5  19
ATOM     19  C   UNL     1      12.991  16.294  18.971  0.00  0.00    +0.121 C 
BRANCH  19  20
ATOM     20  C   UNL     1      11.509  16.241  19.228  0.00  0.00    -0.015 A 
ATOM     21  C   UNL     1      11.048  16.564  20.502  0.00  0.00    +0.115 A 
ATOM     22  N   UNL     1       9.754  16.792  20.813  0.00  0.00    -0.263 NA
ATOM     23  C   UNL     1       8.868  16.691  19.801  0.00  0.00    +0.111 A 
ATOM     24  C   UNL     1       9.210  16.328  18.508  0.00  0.00    +0.020 A 
ATOM     25  C   UNL     1      10.551  16.095  18.220  0.00  0.00    +0.008 A 
ENDBRANCH  19  20
ENDBRANCH   5  19
ENDBRANCH   4   8
ENDBRANCH   1   4
BRANCH   1  26
ATOM     26  C   UNL     1      16.165  14.959  13.682  0.00  0.00    +0.045 C 
BRANCH  26  27
ATOM     27  C   UNL     1      15.679  15.994  12.674  0.00  0.00    +0.082 C 
BRANCH  27  28
ATOM     28  C   UNL     1      14.166  15.894  12.623  0.00  0.00    +0.217 C 
ATOM     29  O   UNL     1      13.584  15.280  11.736  0.00  0.00    -0.275 OA
ATOM     30  N   UNL     1      13.478  16.527  13.663  0.00  0.00    -0.306 N 
ATOM     31  H   UNL     1      13.933  17.107  14.358  0.00  0.00    +0.149 HD
BRANCH  30  32
ATOM     32  C   UNL     1      12.032  16.404  13.607  0.00  0.00    +0.132 C 
ATOM     33  C   UNL     1      11.351  17.603  14.319  0.00  0.00    +0.143 C 
ATOM     34  C   UNL     1       9.890  17.195  14.410  0.00  0.00    +0.069 C 
ATOM     35  C   UNL     1      10.022  15.717  14.633  0.00  0.00    -0.040 A 
ATOM     36  C   UNL     1       9.017  14.874  15.076  0.00  0.00    +0.004 A 
ATOM     37  C   UNL     1       9.286  13.515  15.148  0.00  0.00    +0.000 A 
ATOM     38  C   UNL     1      10.553  13.024  14.775  0.00  0.00    +0.000 A 
ATOM     39  C   UNL     1      11.561  13.887  14.314  0.00  0.00    +0.006 A 
ATOM     40  C   UNL     1      11.300  15.242  14.241  0.00  0.00    -0.022 A 
BRANCH  33  41
ATOM     41  O   UNL     1      11.881  17.808  15.647  0.00  0.00    -0.389 OA
ATOM     42  H   UNL     1      11.519  17.095  16.201  0.00  0.00    +0.210 HD
ENDBRANCH  33  41
ENDBRANCH  30  32
ENDBRANCH  27  28
BRANCH  27  43
ATOM     43  C   UNL     1      16.403  15.940  11.303  0.00  0.00    +0.048 C 
BRANCH  43  44
ATOM     44  C   UNL     1      17.896  15.664  11.204  0.00  0.00    -0.047 A 
ATOM     45  C   UNL     1      18.416  14.427  10.808  0.00  0.00    +0.003 A 
ATOM     46  C   UNL     1      19.798  14.211  10.735  0.00  0.00    +0.000 A 
ATOM     47  C   UNL     1      20.687  15.240  11.030  0.00  0.00    +0.000 A 
ATOM     48  C   UNL     1      20.192  16.494  11.368  0.00  0.00    +0.000 A 
ATOM     49  C   UNL     1      18.811  16.707  11.448  0.00  0.00    +0.003 A 
ENDBRANCH  43  44
ENDBRANCH  27  43
ENDBRANCH  26  27
ENDBRANCH   1  26
TORSDOF 14
ENDMDL
MODEL 7
REMARK VINA RESULT:    -5.587      2.927      6.800
REMARK INTER + INTRA:         -12.629
REMARK INTER:                  -9.586
REMARK INTRA:                  -3.043
REMARK UNBOUND:                -2.796
REMARK  Name = data/1hsg_ligand.pdb
REMARK  17 active torsions:
REMARK  status: ('A' for Active; 'I' for Inactive)
REMARK    1  A    between atoms: N_1  and  C_39
REMARK    2  A    between atoms: C_3  and  C_4
REMARK    3  A    between atoms: N_6  and  C_7
REMARK    4  A    between atoms: C_7  and  C_8
REMARK    5  A    between atoms: C_7  and  C_9
REMARK    6  A    between atoms: C_7  and  C_10
REMARK    7  A    between atoms: N_11  and  C_14
REMARK    8  A    between atoms: C_14  and  C_15
REMARK    9  A    between atoms: C_15  and  O_16
REMARK   10  A    between atoms: C_15  and  C_17
REMARK   11  A    between atoms: C_17  and  C_18
REMARK   12  A    between atoms: C_18  and  C_19
REMARK   13  A    between atoms: C_18  and  C_26
REMARK   14  A    between atoms: C_19  and  C_20
REMARK   15  A    between atoms: N_28  and  C_29
REMARK   16  A    between atoms: C_30  and  O_31
REMARK   17  A    between atoms: C_39  and  C_40
REMARK                            x       y       z     vdW  Elec       q    Type
REMARK                         _______ _______ _______ _____ _____    ______ ____
ROOT
ATOM      1  C   UNL     1      14.167  15.269  12.752  0.00  0.00    +0.129 C 
ENDROOT
BRANCH   1   2
ATOM      2  O   UNL     1      14.631  16.016  11.635  0.00  0.00    -0.391 OA
ATOM      3  H   UNL     1      14.745  15.383  10.902  0.00  0.00    +0.210 HD
ENDBRANCH   1   2
BRANCH   1   4
ATOM      4  C   UNL     1      12.701  15.631  13.094  0.00  0.00    +0.116 C 
BRANCH   4   8
ATOM      5  N   UNL     1       9.370  16.647  14.998  0.00  0.00    -0.295 NA
ATOM      6  C   UNL     1       9.771  15.255  14.671  0.00  0.00    +0.113 C 
ATOM      7  C   UNL     1      11.240  14.866  15.006  0.00  0.00    +0.157 C 
ATOM      8  N   UNL     1      12.263  15.817  14.489  0.00  0.00    -0.287 NA
ATOM      9  C   UNL     1      11.869  17.212  14.767  0.00  0.00    +0.100 C 
ATOM     10  C   UNL     1      10.390  17.617  14.561  0.00  0.00    +0.100 C 
BRANCH   7  11
ATOM     11  C   UNL     1      11.557  13.375  14.662  0.00  0.00    +0.232 C 
ATOM     12  O   UNL     1      11.050  12.796  13.705  0.00  0.00    -0.274 OA
ATOM     13  N   UNL     1      12.432  12.754  15.544  0.00  0.00    -0.309 N 
ATOM     14  H   UNL     1      12.818  13.358  16.265  0.00  0.00    +0.149 HD
BRANCH  13  15
ATOM     15  C   UNL     1      12.821  11.324  15.552  0.00  0.00    +0.026 C 
ATOM     16  C   UNL     1      14.298  11.119  15.170  0.00  0.00    +0.031 C 
ATOM     17  C   UNL     1      12.626  10.764  16.979  0.00  0.00    +0.031 C 
ATOM     18  C   UNL     1      11.939  10.495  14.600  0.00  0.00    +0.031 C 
ENDBRANCH  13  15
ENDBRANCH   7  11
BRANCH   5  19
ATOM     19  C   UNL     1       9.081  16.855  16.417  0.00  0.00    +0.121 C 
BRANCH  19  20
ATOM     20  C   UNL     1       7.626  16.980  16.779  0.00  0.00    -0.015 A 
ATOM     21  C   UNL     1       6.676  16.728  15.794  0.00  0.00    +0.115 A 
ATOM     22  N   UNL     1       5.356  16.567  16.026  0.00  0.00    -0.263 NA
ATOM     23  C   UNL     1       4.957  16.661  17.311  0.00  0.00    +0.111 A 
ATOM     24  C   UNL     1       5.809  16.957  18.364  0.00  0.00    +0.020 A 
ATOM     25  C   UNL     1       7.164  17.122  18.092  0.00  0.00    +0.008 A 
ENDBRANCH  19  20
ENDBRANCH   5  19
ENDBRANCH   4   8
ENDBRANCH   1   4
BRANCH   1  26
ATOM     26  C   UNL     1      15.131  15.669  13.856  0.00  0.00    +0.045 C 
BRANCH  26  27
ATOM     27  C   UNL     1      15.804  14.500  14.566  0.00  0.00    +0.082 C 
BRANCH  27  28
ATOM     28  C   UNL     1      15.754  14.791  16.054  0.00  0.00    +0.217 C 
ATOM     29  O   UNL     1      16.752  14.730  16.763  0.00  0.00    -0.275 OA
ATOM     30  N   UNL     1      14.502  15.153  16.562  0.00  0.00    -0.306 N 
ATOM     31  H   UNL     1      13.652  15.130  16.013  0.00  0.00    +0.149 HD
BRANCH  30  32
ATOM     32  C   UNL     1      14.479  15.445  17.985  0.00  0.00    +0.132 C 
ATOM     33  C   UNL     1      13.738  14.325  18.763  0.00  0.00    +0.143 C 
ATOM     34  C   UNL     1      13.564  14.899  20.159  0.00  0.00    +0.069 C 
ATOM     35  C   UNL     1      13.339  16.349  19.842  0.00  0.00    -0.040 A 
ATOM     36  C   UNL     1      12.836  17.297  20.716  0.00  0.00    +0.004 A 
ATOM     37  C   UNL     1      12.770  18.615  20.286  0.00  0.00    +0.000 A 
ATOM     38  C   UNL     1      13.209  18.959  18.992  0.00  0.00    +0.000 A 
ATOM     39  C   UNL     1      13.731  17.991  18.118  0.00  0.00    +0.006 A 
ATOM     40  C   UNL     1      13.797  16.676  18.540  0.00  0.00    -0.022 A 
BRANCH  33  41
ATOM     41  O   UNL     1      12.441  14.042  18.189  0.00  0.00    -0.389 OA
ATOM     42  H   UNL     1      12.236  14.784  17.596  0.00  0.00    +0.210 HD
ENDBRANCH  33  41
ENDBRANCH  30  32
ENDBRANCH  27  28
BRANCH  27  43
ATOM     43  C   UNL     1      17.200  14.128  14.000  0.00  0.00    +0.048 C 
BRANCH  43  44
ATOM     44  C   UNL     1      17.957  15.066  13.073  0.00  0.00    -0.047 A 
ATOM     45  C   UNL     1      17.973  14.913  11.682  0.00  0.00    +0.003 A 
ATOM     46  C   UNL     1      18.687  15.796  10.864  0.00  0.00    +0.000 A 
ATOM     47  C   UNL     1      19.378  16.869  11.420  0.00  0.00    +0.000 A 
ATOM     48  C   UNL     1      19.328  17.074  12.793  0.00  0.00    +0.000 A 
ATOM     49  C   UNL     1      18.620  16.187  13.612  0.00  0.00    +0.003 A 
ENDBRANCH  43  44
ENDBRANCH  27  43
ENDBRANCH  26  27
ENDBRANCH   1  26
TORSDOF 14
ENDMDL
MODEL 8
REMARK VINA RESULT:    -5.418      3.632      8.667
REMARK INTER + INTRA:         -12.332
REMARK INTER:                  -9.390
REMARK INTRA:                  -2.942
REMARK UNBOUND:                -2.796
REMARK  Name = data/1hsg_ligand.pdb
REMARK  17 active torsions:
REMARK  status: ('A' for Active; 'I' for Inactive)
REMARK    1  A    between atoms: N_1  and  C_39
REMARK    2  A    between atoms: C_3  and  C_4
REMARK    3  A    between atoms: N_6  and  C_7
REMARK    4  A    between atoms: C_7  and  C_8
REMARK    5  A    between atoms: C_7  and  C_9
REMARK    6  A    between atoms: C_7  and  C_10
REMARK    7  A    between atoms: N_11  and  C_14
REMARK    8  A    between atoms: C_14  and  C_15
REMARK    9  A    between atoms: C_15  and  O_16
REMARK   10  A    between atoms: C_15  and  C_17
REMARK   11  A    between atoms: C_17  and  C_18
REMARK   12  A    between atoms: C_18  and  C_19
REMARK   13  A    between atoms: C_18  and  C_26
REMARK   14  A    between atoms: C_19  and  C_20
REMARK   15  A    between atoms: N_28  and  C_29
REMARK   16  A    between atoms: C_30  and  O_31
REMARK   17  A    between atoms: C_39  and  C_40
REMARK                            x       y       z     vdW  Elec       q    Type
REMARK                         _______ _______ _______ _____ _____    ______ ____
ROOT
ATOM      1  C   UNL     1      11.515  16.261  14.112  0.00  0.00    +0.129 C 
ENDROOT
BRANCH   1   2
ATOM      2  O   UNL     1      11.197  17.369  13.281  0.00  0.00    -0.391 OA
ATOM      3  H   UNL     1      11.341  18.171  13.816  0.00  0.00    +0.210 HD
ENDBRANCH   1   2
BRANCH   1   4
ATOM      4  C   UNL     1      10.435  16.054  15.202  0.00  0.00    +0.116 C 
BRANCH   4   8
ATOM      5  N   UNL     1      11.327  12.194  14.976  0.00  0.00    -0.295 NA
ATOM      6  C   UNL     1      11.367  13.003  16.220  0.00  0.00    +0.113 C 
ATOM      7  C   UNL     1      10.129  13.906  16.493  0.00  0.00    +0.157 C 
ATOM      8  N   UNL     1       9.729  14.768  15.347  0.00  0.00    -0.287 NA
ATOM      9  C   UNL     1       9.719  13.995  14.089  0.00  0.00    +0.100 C 
ATOM     10  C   UNL     1      10.871  12.995  13.826  0.00  0.00    +0.100 C 
BRANCH   7  11
ATOM     11  C   UNL     1      10.246  14.689  17.840  0.00  0.00    +0.232 C 
ATOM     12  O   UNL     1      11.291  14.745  18.483  0.00  0.00    -0.274 OA
ATOM     13  N   UNL     1       9.066  15.287  18.263  0.00  0.00    -0.309 N 
ATOM     14  H   UNL     1       8.286  15.207  17.615  0.00  0.00    +0.149 HD
BRANCH  13  15
ATOM     15  C   UNL     1       8.833  15.986  19.549  0.00  0.00    +0.026 C 
ATOM     16  C   UNL     1       7.631  16.945  19.482  0.00  0.00    +0.031 C 
ATOM     17  C   UNL     1       8.532  14.933  20.638  0.00  0.00    +0.031 C 
ATOM     18  C   UNL     1      10.078  16.776  19.993  0.00  0.00    +0.031 C 
ENDBRANCH  13  15
ENDBRANCH   7  11
BRANCH   5  19
ATOM     19  C   UNL     1      10.500  10.992  15.086  0.00  0.00    +0.121 C 
BRANCH  19  20
ATOM     20  C   UNL     1      10.888   9.843  14.195  0.00  0.00    -0.015 A 
ATOM     21  C   UNL     1       9.890   9.215  13.454  0.00  0.00    +0.115 A 
ATOM     22  N   UNL     1      10.117   8.345  12.448  0.00  0.00    -0.263 NA
ATOM     23  C   UNL     1      11.409   8.083  12.161  0.00  0.00    +0.111 A 
ATOM     24  C   UNL     1      12.479   8.612  12.865  0.00  0.00    +0.020 A 
ATOM     25  C   UNL     1      12.213   9.504  13.900  0.00  0.00    +0.008 A 
ENDBRANCH  19  20
ENDBRANCH   5  19
ENDBRANCH   4   8
ENDBRANCH   1   4
BRANCH   1  26
ATOM     26  C   UNL     1      12.860  16.650  14.702  0.00  0.00    +0.045 C 
BRANCH  26  27
ATOM     27  C   UNL     1      13.595  15.517  15.410  0.00  0.00    +0.082 C 
BRANCH  27  28
ATOM     28  C   UNL     1      14.265  16.113  16.632  0.00  0.00    +0.217 C 
ATOM     29  O   UNL     1      15.065  17.039  16.549  0.00  0.00    -0.275 OA
ATOM     30  N   UNL     1      13.899  15.555  17.862  0.00  0.00    -0.306 N 
ATOM     31  H   UNL     1      13.306  14.739  17.946  0.00  0.00    +0.149 HD
BRANCH  30  32
ATOM     32  C   UNL     1      14.539  16.151  19.021  0.00  0.00    +0.132 C 
ATOM     33  C   UNL     1      14.621  15.132  20.188  0.00  0.00    +0.143 C 
ATOM     34  C   UNL     1      15.052  15.970  21.380  0.00  0.00    +0.069 C 
ATOM     35  C   UNL     1      14.333  17.257  21.094  0.00  0.00    -0.040 A 
ATOM     36  C   UNL     1      14.130  18.285  21.999  0.00  0.00    +0.004 A 
ATOM     37  C   UNL     1      13.517  19.445  21.546  0.00  0.00    +0.000 A 
ATOM     38  C   UNL     1      13.121  19.555  20.197  0.00  0.00    +0.000 A 
ATOM     39  C   UNL     1      13.345  18.510  19.286  0.00  0.00    +0.006 A 
ATOM     40  C   UNL     1      13.953  17.352  19.732  0.00  0.00    -0.022 A 
BRANCH  33  41
ATOM     41  O   UNL     1      13.337  14.526  20.460  0.00  0.00    -0.389 OA
ATOM     42  H   UNL     1      13.105  14.771  21.371  0.00  0.00    +0.210 HD
ENDBRANCH  33  41
ENDBRANCH  30  32
ENDBRANCH  27  28
BRANCH  27  43
ATOM     43  C   UNL     1      14.510  14.674  14.484  0.00  0.00    +0.048 C 
BRANCH  43  44
ATOM     44  C   UNL     1      15.525  15.330  13.559  0.00  0.00    -0.047 A 
ATOM     45  C   UNL     1      16.883  15.444  13.877  0.00  0.00    +0.003 A 
ATOM     46  C   UNL     1      17.784  16.060  13.000  0.00  0.00    +0.000 A 
ATOM     47  C   UNL     1      17.347  16.551  11.773  0.00  0.00    +0.000 A 
ATOM     48  C   UNL     1      16.014  16.397  11.411  0.00  0.00    +0.000 A 
ATOM     49  C   UNL     1      15.113  15.787  12.291  0.00  0.00    +0.003 A 
ENDBRANCH  43  44
ENDBRANCH  27  43
ENDBRANCH  26  27
ENDBRANCH   1  26
TORSDOF 14
ENDMDL
MODEL 9
REMARK VINA RESULT:    -5.349      3.818      8.839
REMARK INTER + INTRA:         -12.209
REMARK INTER:                  -8.915
REMARK INTRA:                  -3.294
REMARK UNBOUND:                -2.796
REMARK  Name = data/1hsg_ligand.pdb
REMARK  17 active torsions:
REMARK  status: ('A' for Active; 'I' for Inactive)
REMARK    1  A    between atoms: N_1  and  C_39
REMARK    2  A    between atoms: C_3  and  C_4
REMARK    3  A    between atoms: N_6  and  C_7
REMARK    4  A    between atoms: C_7  and  C_8
REMARK    5  A    between atoms: C_7  and  C_9
REMARK    6  A    between atoms: C_7  and  C_10
REMARK    7  A    between atoms: N_11  and  C_14
REMARK    8  A    between atoms: C_14  and  C_15
REMARK    9  A    between atoms: C_15  and  O_16
REMARK   10  A    between atoms: C_15  and  C_17
REMARK   11  A    between atoms: C_17  and  C_18
REMARK   12  A    between atoms: C_18  and  C_19
REMARK   13  A    between atoms: C_18  and  C_26
REMARK   14  A    between atoms: C_19  and  C_20
REMARK   15  A    between atoms: N_28  and  C_29
REMARK   16  A    between atoms: C_30  and  O_31
REMARK   17  A    between atoms: C_39  and  C_40
REMARK                            x       y       z     vdW  Elec       q    Type
REMARK                         _______ _______ _______ _____ _____    ______ ____
ROOT
ATOM      1  C   UNL     1       9.980  16.492  14.864  0.00  0.00    +0.129 C 
ENDROOT
BRANCH   1   2
ATOM      2  O   UNL     1       9.802  17.869  15.166  0.00  0.00    -0.391 OA
ATOM      3  H   UNL     1      10.294  18.370  14.490  0.00  0.00    +0.210 HD
ENDBRANCH   1   2
BRANCH   1   4
ATOM      4  C   UNL     1       9.757  15.613  16.120  0.00  0.00    +0.116 C 
BRANCH   4   8
ATOM      5  N   UNL     1       9.862  12.207  14.086  0.00  0.00    -0.295 NA
ATOM      6  C   UNL     1      10.523  12.435  15.396  0.00  0.00    +0.113 C 
ATOM      7  C   UNL     1       9.657  13.118  16.494  0.00  0.00    +0.157 C 
ATOM      8  N   UNL     1       8.974  14.366  16.053  0.00  0.00    -0.287 NA
ATOM      9  C   UNL     1       8.340  14.178  14.733  0.00  0.00    +0.100 C 
ATOM     10  C   UNL     1       9.118  13.400  13.644  0.00  0.00    +0.100 C 
BRANCH   7  11
ATOM     11  C   UNL     1      10.424  13.282  17.845  0.00  0.00    +0.232 C 
ATOM     12  O   UNL     1       9.854  13.544  18.901  0.00  0.00    -0.274 OA
ATOM     13  N   UNL     1      11.802  13.139  17.746  0.00  0.00    -0.309 N 
ATOM     14  H   UNL     1      12.143  12.874  16.826  0.00  0.00    +0.149 HD
BRANCH  13  15
ATOM     15  C   UNL     1      12.799  13.359  18.821  0.00  0.00    +0.026 C 
ATOM     16  C   UNL     1      12.737  12.270  19.906  0.00  0.00    +0.031 C 
ATOM     17  C   UNL     1      14.214  13.321  18.200  0.00  0.00    +0.031 C 
ATOM     18  C   UNL     1      12.616  14.737  19.484  0.00  0.00    +0.031 C 
ENDBRANCH  13  15
ENDBRANCH   7  11
BRANCH   5  19
ATOM     19  C   UNL     1       8.969  11.049  14.075  0.00  0.00    +0.121 C 
BRANCH  19  20
ATOM     20  C   UNL     1       8.875  10.303  12.771  0.00  0.00    -0.015 A 
ATOM     21  C   UNL     1       7.611  10.008  12.268  0.00  0.00    +0.115 A 
ATOM     22  N   UNL     1       7.369   9.567  11.016  0.00  0.00    -0.263 NA
ATOM     23  C   UNL     1       8.445   9.409  10.218  0.00  0.00    +0.111 A 
ATOM     24  C   UNL     1       9.750   9.625  10.629  0.00  0.00    +0.020 A 
ATOM     25  C   UNL     1       9.967  10.076  11.928  0.00  0.00    +0.008 A 
ENDBRANCH  19  20
ENDBRANCH   5  19
ENDBRANCH   4   8
ENDBRANCH   1   4
BRANCH   1  26
ATOM     26  C   UNL     1      11.415  16.433  14.369  0.00  0.00    +0.045 C 
BRANCH  26  27
ATOM     27  C   UNL     1      12.407  15.843  15.365  0.00  0.00    +0.082 C 
BRANCH  27  28
ATOM     28  C   UNL     1      13.057  17.006  16.090  0.00  0.00    +0.217 C 
ATOM     29  O   UNL     1      12.750  18.170  15.859  0.00  0.00    -0.275 OA
ATOM     30  N   UNL     1      14.013  16.666  17.053  0.00  0.00    -0.306 N 
ATOM     31  H   UNL     1      14.340  15.720  17.201  0.00  0.00    +0.149 HD
BRANCH  30  32
ATOM     32  C   UNL     1      14.611  17.793  17.748  0.00  0.00    +0.132 C 
ATOM     33  C   UNL     1      16.083  17.484  18.129  0.00  0.00    +0.143 C 
ATOM     34  C   UNL     1      16.467  18.619  19.064  0.00  0.00    +0.069 C 
ATOM     35  C   UNL     1      15.170  18.842  19.786  0.00  0.00    -0.040 A 
ATOM     36  C   UNL     1      15.011  19.563  20.957  0.00  0.00    +0.004 A 
ATOM     37  C   UNL     1      13.726  19.742  21.447  0.00  0.00    +0.000 A 
ATOM     38  C   UNL     1      12.623  19.198  20.757  0.00  0.00    +0.000 A 
ATOM     39  C   UNL     1      12.795  18.480  19.563  0.00  0.00    +0.006 A 
ATOM     40  C   UNL     1      14.074  18.296  19.070  0.00  0.00    -0.022 A 
BRANCH  33  41
ATOM     41  O   UNL     1      16.203  16.223  18.823  0.00  0.00    -0.389 OA
ATOM     42  H   UNL     1      17.085  15.873  18.608  0.00  0.00    +0.210 HD
ENDBRANCH  33  41
ENDBRANCH  30  32
ENDBRANCH  27  28
BRANCH  27  43
ATOM     43  C   UNL     1      13.381  14.801  14.755  0.00  0.00    +0.048 C 
BRANCH  43  44
ATOM     44  C   UNL     1      14.567  15.226  13.902  0.00  0.00    -0.047 A 
ATOM     45  C   UNL     1      15.889  15.175  14.357  0.00  0.00    +0.003 A 
ATOM     46  C   UNL     1      16.953  15.581  13.541  0.00  0.00    +0.000 A 
ATOM     47  C   UNL     1      16.716  16.020  12.243  0.00  0.00    +0.000 A 
ATOM     48  C   UNL     1      15.416  16.024  11.750  0.00  0.00    +0.000 A 
ATOM     49  C   UNL     1      14.352  15.625  12.568  0.00  0.00    +0.003 A 
ENDBRANCH  43  44
ENDBRANCH  27  43
ENDBRANCH  26  27
ENDBRANCH   1  26
TORSDOF 14
ENDMDL
